Version 4
SHEET 1 932 680
WIRE 16 128 -96 128
WIRE 160 128 96 128
WIRE 320 128 240 128
WIRE 448 128 320 128
WIRE 560 128 448 128
WIRE -96 192 -96 128
WIRE 320 208 320 128
WIRE 448 208 448 128
WIRE 560 208 560 128
WIRE -96 336 -96 272
WIRE 176 336 -96 336
WIRE 320 336 320 272
WIRE 320 336 176 336
WIRE 448 336 448 288
WIRE 448 336 320 336
WIRE 560 336 560 288
WIRE 560 336 448 336
WIRE 176 368 176 336
FLAG 176 368 0
FLAG -96 128 Impedance
SYMBOL ind 256 112 R90
WINDOW 0 5 56 VBottom 2
WINDOW 3 32 56 VTop 2
SYMATTR InstName L1
SYMATTR Value 0.11m
SYMBOL res 112 112 R90
WINDOW 0 0 56 VBottom 2
WINDOW 3 32 56 VTop 2
SYMATTR InstName R1
SYMATTR Value {Re}
SYMBOL current -96 192 R0
WINDOW 123 24 108 Left 2
WINDOW 39 0 0 Left 2
SYMATTR Value2 AC 1
SYMATTR InstName I1
SYMATTR Value ""
SYMBOL cap 304 208 R0
SYMATTR InstName C1
SYMATTR Value 306µ
SYMBOL res 432 192 R0
SYMATTR InstName R2
SYMATTR Value 8.9
SYMBOL ind 544 192 R0
SYMATTR InstName L2
SYMATTR Value 7.5m
TEXT -152 400 Left 2 !.ac oct 100 10 30000
TEXT -416 184 Left 2 !.param Re=6.1
