Version 4
SHEET 1 1732 680
WIRE 16 -288 -96 -288
WIRE 160 -288 96 -288
WIRE 320 -288 240 -288
WIRE 448 -288 320 -288
WIRE 560 -288 448 -288
WIRE -96 -224 -96 -288
WIRE 320 -208 320 -288
WIRE 448 -208 448 -288
WIRE 560 -208 560 -288
WIRE -96 -80 -96 -144
WIRE 176 -80 -96 -80
WIRE 320 -80 320 -144
WIRE 320 -80 176 -80
WIRE 448 -80 448 -128
WIRE 448 -80 320 -80
WIRE 560 -80 560 -128
WIRE 560 -80 448 -80
WIRE 176 -48 176 -80
WIRE 16 128 -96 128
WIRE 160 128 96 128
WIRE 320 128 240 128
WIRE 448 128 320 128
WIRE 560 128 448 128
WIRE -96 192 -96 128
WIRE 320 208 320 128
WIRE 448 208 448 128
WIRE 560 208 560 128
WIRE -96 336 -96 272
WIRE 176 336 -96 336
WIRE 320 336 320 272
WIRE 320 336 176 336
WIRE 448 336 448 288
WIRE 448 336 320 336
WIRE 560 336 560 288
WIRE 560 336 448 336
WIRE 176 368 176 336
FLAG 176 368 0
FLAG -96 128 Z_woofer
FLAG 176 -48 0
FLAG -96 -288 Z_tweeter
SYMBOL ind 256 112 R90
WINDOW 0 5 56 VBottom 2
WINDOW 3 32 56 VTop 2
SYMATTR InstName L1
SYMATTR Value {Le_w}
SYMBOL res 112 112 R90
WINDOW 0 0 56 VBottom 2
WINDOW 3 32 56 VTop 2
SYMATTR InstName R1
SYMATTR Value {Re_w}
SYMBOL current -96 192 R0
WINDOW 123 24 108 Left 2
WINDOW 39 0 0 Left 2
SYMATTR Value2 AC 1
SYMATTR InstName I1
SYMATTR Value ""
SYMBOL cap 304 208 R0
SYMATTR InstName C1
SYMATTR Value {C_mes_w}
SYMBOL res 432 192 R0
SYMATTR InstName R2
SYMATTR Value {R_es_w}
SYMBOL ind 544 192 R0
SYMATTR InstName L2
SYMATTR Value {L_ces_w}
SYMBOL ind 256 -304 R90
WINDOW 0 5 56 VBottom 2
WINDOW 3 32 56 VTop 2
SYMATTR InstName L3
SYMATTR Value {Le_t}
SYMBOL res 112 -304 R90
WINDOW 0 0 56 VBottom 2
WINDOW 3 32 56 VTop 2
SYMATTR InstName R3
SYMATTR Value {Re_t}
SYMBOL current -96 -224 R0
WINDOW 123 24 108 Left 2
WINDOW 39 0 0 Left 2
SYMATTR Value2 AC 2
SYMATTR InstName I2
SYMATTR Value ""
SYMBOL cap 304 -208 R0
SYMATTR InstName C2
SYMATTR Value {C_mes_t}
SYMBOL res 432 -224 R0
SYMATTR InstName R4
SYMATTR Value {R_es_t}
SYMBOL ind 544 -224 R0
SYMATTR InstName L4
SYMATTR Value {L_ces_t}
TEXT -152 400 Left 2 !.ac dec 100 20 20000
TEXT -576 144 Left 2 !.param Re_w=5.13 Le_w=0.84m
TEXT -912 232 Left 2 !.param C_mes_w=0.000265923 L_ces_w=0.0239995549 R_es_w=63.65
TEXT -544 -224 Left 2 !.param Re_t=6.9 Le_t=0.1m
TEXT -912 -120 Left 2 !.param C_mes_t=0.000081939 L_ces_t=0.0002803955 R_es_t=12.9305630027
TEXT 168 -376 Left 2 ;Tweeter
TEXT 168 48 Left 2 ;Woofer
